171
-1.000000 20.000000 20.000000 20.000000 0.000000 0.000000 0.000000
H 8.782242 -9.472396 0.064732 -1.295528 2.933589 -1.996031 
H -1.342355 -5.786726 2.961843 1.946684 0.695121 -0.791143 
H 3.563492 -7.722753 0.970407 -0.547756 0.046591 -0.622847 
H -3.368515 -5.366094 -1.785818 0.035061 1.099428 0.862950 
H -5.356347 -3.185481 0.355514 2.864073 2.195795 2.065608 
H 1.241443 -9.646105 -9.572306 1.666007 2.643004 -0.274939 
H 4.171489 5.546390 -8.243442 -1.916063 1.638704 1.329572 
H 1.022756 7.576698 -8.151423 -0.162903 1.166893 2.848819 
H -1.347720 9.095002 5.124080 0.693050 0.005594 2.174377 
H 4.445109 2.898897 0.199907 -2.246066 3.064474 1.539192 
H 4.615478 4.137210 -5.183983 -1.429385 2.515773 1.168797 
H -0.061892 8.938032 -5.011313 -0.068931 2.641010 -2.568468 
H 4.513946 -8.648031 9.612219 2.939299 2.933381 2.521772 
H 8.781714 1.789166 -0.761570 -1.757242 2.035224 1.466084 
H -0.090531 -9.250644 2.871185 3.123300 0.543280 -0.746994 
H -0.282568 -7.739799 0.215601 -0.427618 1.759117 -1.157482 
H 2.506448 -9.650131 -7.723360 1.999540 2.137981 -1.086144 
H -3.038055 -8.356324 0.579990 -2.755197 3.122073 -0.260387 
H 0.374549 5.702158 0.000982 2.569583 0.679969 -2.105760 
H -3.594871 -5.721676 7.046319 -0.646437 0.568532 2.403515 
H 0.511999 -4.079173 4.693611 -0.924519 0.159547 0.407197 
H -0.708272 6.361058 1.663554 -0.869777 0.120732 -1.131352 
H 2.840888 -3.141380 -6.567212 -1.582075 3.137363 1.899360 
H -8.633696 3.722357 5.585876 2.523549 3.132094 1.706883 
H 0.676773 0.018144 -2.765296 -0.272470 1.095774 -2.481289 
H -9.928059 8.274369 -5.343077 -1.168505 0.981224 2.188388 
H 8.063357 2.871786 -1.002867 -1.465673 1.865879 -1.504097 
H -3.190328 -2.500926 -0.559221 -0.432153 0.155062 -0.900986 
H 3.607909 2.404964 5.655805 -2.250544 1.148731 1.818605 
H -0.379157 7.826730 -2.503923 2.865982 1.029194 1.120142 
H 5.372789 -6.836774 7.748254 -0.351567 2.058035 -2.488194 
H -2.923553 6.096188 -7.846278 -2.052518 2.078268 1.011751 
H 2.916581 -8.513327 6.020453 -2.268489 0.037412 -1.484308 
H 7.389302 3.991671 -9.845780 -1.863886 3.098499 -2.056919 
H 2.747805 -6.422619 2.830032 1.002419 0.378240 2.929176 
H -5.930085 9.198328 -6.422679 1.018558 1.554572 1.726736 
H -8.810442 -6.014340 5.949724 -0.031404 3.042433 0.928057 
H 8.755785 7.723013 -8.046185 -0.935284 2.562324 2.386084 
H -5.836269 -3.253515 -3.741239 2.007287 1.365298 -2.846606 
H -9.192614 -3.687083 2.631950 -2.602304 1.328682 0.974340 
H 3.600143 -5.312158 -1.468161 1.617491 2.973153 -0.034913 
H -2.307631 1.441575 -7.601600 2.297027 0.786814 0.671747 
H -2.338123 -4.590211 6.214111 0.096470 2.206956 -1.125969 
H 3.294445 -8.752348 -0.998873 -3.000895 1.336559 1.806867 
H -7.494725 -4.903372 -3.676452 1.279750 0.287892 1.173564 
H 9.973673 6.431963 6.974076 0.901275 2.868865 -0.561785 
H -6.335315 6.234145 -3.862610 0.937812 0.123928 2.560818 
H 7.990838 -8.064152 8.414733 -2.957390 1.228153 -0.150379 
H -8.625513 1.114657 -2.419573 2.443460 1.940641 1.515134 
H -9.877515 -9.528182 7.468700 2.269268 0.845221 -1.801769 
H -9.480932 -7.676814 -3.713424 -1.835035 2.934803 -1.281702 
H 3.672195 8.651505 5.000959 -2.130969 0.640964 0.309216 
H 0.287209 -5.953669 1.452337 0.194433 1.015715 -0.698061 
H -4.948941 7.572583 6.138533 2.236857 0.101737 2.469514 
H -1.400131 -0.670472 -2.649677 -0.941571 1.680272 -0.206521 
H -2.211730 9.238647 9.399554 2.519141 3.050666 -0.701982 
H -1.316039 -0.901998 4.047878 -2.380599 1.936557 3.106626 
H 2.081509 -4.734799 1.267956 0.327695 1.540272 1.595053 
H 2.789338 4.749308 -1.432000 2.933739 2.128431 -3.023647 
H -6.536361 -5.811200 -7.916958 0.085038 0.878602 -3.094612 
H 7.776330 -4.420056 8.682134 1.318005 0.376434 -1.720989 
H 6.960271 -2.070048 -8.295635 1.021630 1.836816 2.731983 
H -6.734257 -8.471824 1.368516 -2.957365 2.621940 -2.201068 
H -3.968168 -6.736585 6.560717 -3.098925 3.104021 0.488798 
H -0.044868 -1.900038 6.395848 -3.095252 0.140844 2.429331 
H 7.602960 7.316233 -8.282515 2.674183 3.043729 -2.424659 
H 0.832195 1.808178 2.970261 -1.170519 0.767480 -2.426993 
H -9.056177 9.048566 -4.455116 -2.541150 2.982527 -2.691733 
H 3.962988 5.478783 6.090293 -1.743061 0.159391 1.464539 
H -1.542254 8.631695 -6.102377 1.404178 2.754556 0.899054 
H -4.001029 -8.794080 -4.515681 -2.701980 2.185290 2.150527 
H 1.797340 -8.143714 -9.056601 1.707530 0.035896 -1.208409 
H -3.575757 -7.573557 3.382393 0.552675 3.112068 0.120710 
H 4.369802 -1.540494 9.831391 2.906934 0.421203 -1.207504 
H -8.173738 -2.584768 -3.957433 -0.294877 1.021074 2.263552 
H 1.597687 -5.923662 1.024361 0.243186 0.824621 2.824552 
H 7.971791 5.635972 -3.194420 1.834888 1.369806 -1.544538 
H 5.863056 -4.372539 -8.351978 2.497176 2.271634 0.091666 
H 0.307456 0.753910 -3.940558 0.078885 1.929908 0.214853 
H 3.363599 3.767979 -7.020418 1.186385 1.650429 -0.348324 
H -1.895450 -2.107482 -1.609901 -2.872499 0.826133 0.109055 
H 9.510160 -5.625815 9.692071 -1.862162 0.820767 1.707043 
H -3.943160 9.890846 -8.035224 -2.365804 0.018285 -1.061155 
H -2.911492 -7.398750 8.076673 1.121245 0.759460 -2.730846 
H 9.421637 5.081730 -8.800186 0.702100 3.003862 1.546705 
H 6.397806 -3.078251 4.088986 1.045731 2.260049 3.137318 
H -6.419467 -6.756177 7.490168 0.557006 0.207549 0.883998 
H 1.465051 7.895926 -6.093520 -2.723025 2.436334 -1.321770 
H 8.454930 3.763427 -4.426189 1.319140 0.227161 -3.133511 
H -3.006204 9.477648 -8.374199 1.046799 2.297694 0.263562 
H -8.637017 4.867912 0.882032 2.134611 3.063493 0.719477 
H 5.330134 -6.500505 -9.913137 2.442701 2.566458 2.736939 
H -5.125652 5.481841 2.549050 -1.746947 0.874702 -1.406968 
H 8.590862 6.801257 9.644474 -2.929299 2.305098 2.984893 
H -1.420351 -5.404032 -2.027839 1.116533 1.298097 2.312644 
H 5.371556 -3.756421 3.592021 0.951731 2.787456 2.855455 
H -9.839978 9.720822 -2.113648 2.013095 2.985033 -2.600899 
H 9.208880 0.827213 1.936347 -2.438329 1.734110 0.365100 
H -9.365412 -1.889695 -9.147816 1.288592 0.971389 2.831639 
H -9.331281 -9.977057 -4.992746 1.998433 2.967548 -2.885962 
H 6.597237 9.490435 -5.287303 1.439988 1.317126 2.776847 
H 1.498166 5.038260 8.192722 -0.486940 2.110438 -1.001673 
H -4.269744 -7.222474 -6.958233 -0.100008 0.686749 2.003010 
H 4.503065 4.249497 -3.157513 -0.553514 1.830149 -1.004837 
H -5.450152 -5.462356 -9.771165 -0.882259 2.838476 3.098546 
H -7.290361 5.837208 -6.499008 1.441103 1.836503 2.514277 
H -0.216241 -7.737625 2.927362 0.666876 1.065105 1.688353 
H 1.186447 -6.689248 -6.720155 0.255615 0.827760 -1.088551 
H 6.338826 -8.122779 9.725987 -0.508907 0.904673 -2.793906 
H 1.881286 -4.332081 8.162248 -0.668168 0.990669 1.161682 
H 5.021563 -9.265035 -2.545926 2.162962 2.650942 0.306074 
H -5.580093 -5.654974 -0.922163 2.330315 1.045928 -2.155329 
H 4.512778 1.245478 1.452880 1.031788 2.328333 0.850316 
H -7.685602 3.540256 8.707718 -0.170170 2.714853 0.155125 
H -6.599096 5.526191 1.694175 2.928043 2.658236 -0.043433 
H 7.496549 9.805410 1.529281 -0.799003 2.904689 3.077562 
H 2.246590 -6.462950 -2.090001 -2.568672 1.382630 1.436901 
H -4.779991 -9.469172 -5.286391 1.180266 0.022652 -1.498770 
H -3.150706 3.333250 -0.783897 1.775763 3.110052 -1.801067 
H -9.421585 -6.171909 -6.994745 -3.109783 2.550431 -0.519225 
H -0.334939 9.068254 6.767542 1.831355 0.008631 2.494216 
H -5.588157 -5.904282 -4.667240 -1.041646 0.020424 2.866600 
H 0.643714 3.377343 -1.152239 1.139013 0.509601 -0.987792 
H 9.267000 -9.815280 -2.815152 1.220225 2.842588 -2.534503 
H 4.342613 -8.972984 -4.185798 0.342536 2.826656 0.737509 
H -6.782821 -1.924232 -0.429250 2.388894 1.957561 -1.411266 
H 2.718592 6.529629 -8.344408 2.637334 1.249182 1.583641 
H 9.850698 3.625501 0.108714 0.899572 2.115877 -1.404406 
H -0.411955 5.296643 -8.134881 2.715762 1.189425 -1.704715 
H -4.860464 4.269574 -2.090163 -0.359486 1.184123 -2.713710 
H 9.235135 0.869681 -8.361193 2.378032 1.948886 -2.706433 
H -1.652581 5.963267 7.062641 0.106364 1.107036 -2.770223 
H -5.347866 -1.719490 -2.959380 1.555960 1.126060 2.358269 
H -0.889407 -7.503967 -0.929198 -0.156450 1.758203 -1.135365 
H 0.016315 -2.372443 -0.786032 0.679655 1.176880 0.950736 
H 7.680359 1.031047 0.689406 1.957311 2.146904 1.640937 
H 4.687482 -3.293835 8.017269 0.692542 2.921242 -2.565841 
H -8.607592 -5.151999 7.463606 2.265774 3.060348 0.050259 
H -4.700504 -0.996445 4.880064 -1.660774 0.332929 -0.291831 
H 2.678630 9.262314 -3.237821 1.983021 0.730849 -0.709562 
H -5.171352 5.946081 -3.283957 -1.456044 3.042878 3.135115 
H -5.543347 6.848197 -3.608060 0.932837 3.047491 2.525076 
H 3.398572 -2.264194 -8.427158 2.979035 0.246737 -1.277622 
H 0.008487 -9.039925 -3.812616 -2.233117 1.091120 -0.772134 
H 8.392198 6.432723 -3.882223 1.863314 1.370072 -1.545541 
H -2.449215 -8.158422 7.542492 -1.166421 0.642699 2.947658 
H 0.920534 -3.300585 -3.509003 2.911552 2.522263 0.199588 
H -5.194871 8.186056 -2.230251 0.275342 1.980670 1.253062 
H 8.252217 -4.725631 3.024820 -0.382035 1.598962 2.504153 
H -5.590675 -4.504899 2.262586 2.925981 0.072753 0.110189 
H 3.719543 2.667163 -3.031993 2.780015 3.063277 1.602923 
H -2.672324 4.204210 -1.200961 0.858503 3.108489 -1.794274 
H -8.551631 3.981993 -3.551692 -2.461334 0.344341 -1.146939 
H -2.049596 -8.441687 -3.199769 2.125676 0.162973 0.038911 
H 9.916043 0.162266 1.546742 -0.019342 1.841212 0.306398 
H -2.933388 5.981458 -2.463548 2.423017 2.208755 2.450927 
H 6.097512 7.056148 -7.925196 -0.290696 3.118495 -1.993605 
H -3.160280 6.877770 7.334967 -2.880323 0.025550 -2.579571 
H -8.913176 -4.841632 1.924879 -1.721888 1.593013 1.025714 
H -7.613386 4.518185 4.187683 -0.164554 0.441994 -3.118254 
H -3.139673 -3.298516 4.542395 -0.086996 2.316507 -1.212519 
H -0.368917 6.775636 -2.403443 -0.916476 0.891438 1.068897 
H -5.544127 -3.327591 4.653629 -0.421633 0.077396 -0.295581 
H 6.071049 8.059492 -8.104825 -3.140306 3.121060 -2.161308 
H 0.097395 -3.121737 8.377982 2.537651 1.048053 1.758378 
H 7.440811 3.041860 -7.357153 1.580849 3.115263 -2.562700 
H 2.138343 0.724046 5.717280 2.148640 1.783365 -3.102770 
H -9.341498 -1.334588 5.121054 2.124355 2.909082 1.453659 
H 2.682102 -3.011721 3.414309 2.594017 2.005124 2.598067 
H 7.006077 8.066426 8.068549 2.789159 3.116063 -2.398593 
H -1.845292 -6.676211 4.175738 2.322876 3.024079 -0.923467 
